TRANSITIVEBUILT='NO'
MKMK_DEVSTAGE=''
MOD_LinkWith='M_JS0GROUP M_JS0BASEILB M_CATSysMultiThreading M_CATSysTS M_CATSysTSObjectModeler M_CATPLMIntegrationAccess M_CATOmx M_CATPLMIdentificationAccess M_CATPLMComponentInterfaces'
MKMK_WARNING=''
MKMK_ZIPJAVASOURCE=''
GProtected='C:\Personal\GitHub\3DSWorkspace\CAABatch\.\CAABatchFW\ProtectedGenerated\win_b64'
IProtected='C:\Personal\GitHub\3DSWorkspace\CAABatch\.\CAABatchFW\ProtectedInterfaces'
MKMK_BSCMAKE=''
M_CATSysTSObjectModeler='mkSharedLibrary "C:\Program Files\Dassault Systemes\B419\.\SystemTS\CATSysTSObjectModeler.m" CATSysTSObjectModeler CATSysTSObjectModeler - - -'
GLocal='C:\Personal\GitHub\3DSWorkspace\CAABatch\.\CAABatchFW\CAABatch.m\LocalGenerated\win_b64'
ILocal='C:\Personal\GitHub\3DSWorkspace\CAABatch\.\CAABatchFW\CAABatch.m\LocalInterfaces'
M_JS0BASEILB='mkSharedLibrary "C:\Program Files\Dassault Systemes\B419\.\SystemTS\JS0BASEILB.m" JS0BASEILB JS0BASEILB - - -'
IPublic='C:\Personal\GitHub\3DSWorkspace\CAABatch\.\CAABatchFW\PublicInterfaces'
GPublic='C:\Personal\GitHub\3DSWorkspace\CAABatch\.\CAABatchFW\PublicGenerated\win_b64'
M_CATOmx='mkSharedLibrary "C:\Program Files\Dassault Systemes\B419\.\ObjectModelerCollection\CATOmx.m" CATOmx CATOmx - - -'
MOD_INCPATH='"C:\Personal\GitHub\3DSWorkspace\CAABatch\.\CAABatchFW\CAABatch.m\src" "C:\Personal\GitHub\3DSWorkspace\CAABatch\.\CAABatchFW\CAABatch.m\LocalInterfaces" "C:\Personal\GitHub\3DSWorkspace\CAABatch\.\CAABatchFW\CAABatch.m\LocalGenerated\win_b64"'
GPrivate='C:\Personal\GitHub\3DSWorkspace\CAABatch\.\CAABatchFW\PrivateGenerated\win_b64'
IPrivate='C:\Personal\GitHub\3DSWorkspace\CAABatch\.\CAABatchFW\PrivateInterfaces'
USE_PDB_FILE='YES'
WSPATH='C:\Personal\GitHub\3DSWorkspace\CAABatch\.'
MODPATH='C:\Personal\GitHub\3DSWorkspace\CAABatch\.\CAABatchFW\CAABatch.m'
FWNAME='CAABatchFW'
WSROOT='C:\Personal\GitHub\3DSWorkspace\CAABatch\.'
CONTNAME='CAABatch'
TARGETS_VALID='cppgrammar typelibgrammar compilation sourceruler cpponly link rmsmanifest clean runtimedata buildtimedata'
WSENAME_msg='CAABatchFW\CAABatch.m'
M_JS0GROUP='mkSharedLibrary "C:\Program Files\Dassault Systemes\B419\.\System\JS0GROUP.m" JS0GROUP JS0GROUP - - -'
NAME='C:\Personal\GitHub\3DSWorkspace\CAABatch\.\CAABatchFW\CAABatch.m\Objects\win_b64\.mkdata.mkb'
STEPS_TO_BUILD='cppgrammar typelibgrammar compilation sourceruler cpponly link rmsmanifest runtimedata buildtimedata cscimplement DoxGrammar1st grammar1st'
WSEKEY='M_CAABatch'
_MK_CLR_BLDCONF='MANAGED_CLR$(_MK_MSNET_VERS)'
WIZARD_LINK_MODULES='JS0GROUP CATPLMIntegrationAccess CATPLMComponentInterfaces'
M_CAABatch='mkLoadModule "C:\Personal\GitHub\3DSWorkspace\CAABatch\.\CAABatchFW\CAABatch.m" CAABatch CAABatch - - -'
FW_AllPreq='BSFBuildtimeData,21DD1140;CATPLMComponentInterfaces,21EE1151;CATPLMIntegrationAccess,21EE1151;SpecialAPI,21ED1151;System,21ED1151;CATPLMIdentificationAccess,20CC1151;CATPLMIntegrationAccessItf,20DD1151;CATVirtualVaultSystem,20DD1151;DataCommonProtocolUse,20DD2031;ObjectModelerBase,20DD1151;ObjectModelerCollection,20DD1131;ObjectModelerEngines,20CC1151;ObjectModelerInterfaces,20DD1151;ObjectModelerSystem,20DD1151;SystemTS,20CC1131;'
FWCOMPANYNAME=''
BUILD='YES'
MOD_Container='CAABatch.m'
F_CAABatchFW='mkFramework "C:\Personal\GitHub\3DSWorkspace\CAABatch\.\CAABatchFW" CAABatchFW CAABatchFW - -'
WS_Concat='"C:\Personal\GitHub\3DSWorkspace\CAABatch\." "C:\Program Files\Dassault Systemes\B419\."'
FWmkHLpath='C:\Personal\GitHub\3DSWorkspace\CAABatch\.\CAABatchFW\IdentityCard\Objects\win_b64\.mkHLpath.mk'
MOD_ObjectsPath='C:\Personal\GitHub\3DSWorkspace\CAABatch\.\CAABatchFW\CAABatch.m\Objects\win_b64'
RTViewDataListPath='C:\Personal\GitHub\3DSWorkspace\CAABatch\.\CAABatchFW\various\win_b64\CAABatch.m\module.data'
FWCOPYRIGHT=''
M_CATPLMComponentInterfaces='mkSharedLibrary "C:\Program Files\Dassault Systemes\B419\.\CATPLMComponentInterfaces\CATPLMComponentInterfaces.m" CATPLMComponentInterfaces CATPLMComponentInterfaces - - -'
TYPELATE='mkLoadModule'
BUILT_OBJECT_TYPE='LOAD MODULE'
IMAKEKEY_VALID='COMDYN_MODULE'
TARGETS_MANDATORY='cscimplement'
FW_INCPATH='"C:\Personal\GitHub\3DSWorkspace\CAABatch\.\CAABatchFW\PrivateInterfaces" "C:\Personal\GitHub\3DSWorkspace\CAABatch\.\CAABatchFW\PrivateGenerated\win_b64" "C:\Personal\GitHub\3DSWorkspace\CAABatch\.\CAABatchFW\ProtectedInterfaces" "C:\Personal\GitHub\3DSWorkspace\CAABatch\.\CAABatchFW\ProtectedGenerated\win_b64" "C:\Personal\GitHub\3DSWorkspace\CAABatch\.\CAABatchFW\PublicInterfaces" "C:\Personal\GitHub\3DSWorkspace\CAABatch\.\CAABatchFW\PublicGenerated\win_b64"'
MOD_SrcPath='C:\Personal\GitHub\3DSWorkspace\CAABatch\.\CAABatchFW\CAABatch.m\src'
LINK_WITH='JS0GROUP CATPLMIntegrationAccess CATPLMComponentInterfaces'
MOD_Included='M_CAABatch'
M_CATPLMIdentificationAccess='mkSharedLibrary "C:\Program Files\Dassault Systemes\B419\.\CATPLMIdentificationAccess\CATPLMIdentificationAccess.m" CATPLMIdentificationAccess CATPLMIdentificationAccess - - -'
M_CATSysTS='mkSharedLibrary "C:\Program Files\Dassault Systemes\B419\.\SystemTS\CATSysTS.m" CATSysTS CATSysTS - - -'
FWPATH='C:\Personal\GitHub\3DSWorkspace\CAABatch\.\CAABatchFW'
MK_BUILD_CONFIGURATION=''
MKMK_DEBUG=''
M_CATPLMIntegrationAccess='mkSharedLibrary "C:\Program Files\Dassault Systemes\B419\.\CATPLMIntegrationAccess\CATPLMIntegrationAccess.m" CATPLMIntegrationAccess CATPLMIntegrationAccess - - -'
STEPS_TO_CLEAN=''
M_CATSysMultiThreading='mkSharedLibrary "C:\Program Files\Dassault Systemes\B419\.\SystemTS\CATSysMultiThreading.m" CATSysMultiThreading CATSysMultiThreading - - -'
MKMK_DEBUGEDITANDCONTINUE=''
MKMK_DATA_VERSION='1.0.0'
FWDNAME='CAABatchFW'
MODNAME='CAABatch'
REAL_LINK_WITH='JS0GROUP JS0BASEILB CATSysMultiThreading CATSysTS CATSysTSObjectModeler CATPLMIntegrationAccess CATOmx CATPLMIdentificationAccess CATPLMComponentInterfaces'

